# Name file for MODFLOW-2005, generated by Flopy version 3.8.2.
#xll:0.0; yll:0.0; rotation:270; units:meters; lenuni:2; start_datetime:12/17/2024
LIST               2  Beta.list
DIS               11  Beta.dis
RCH               19  Beta.rch
WEL               20  Beta.wel
