# DIS package for MODFLOW-2005 generated by Flopy 3.8.2
        50        10        10         1         4         2
  0  0  0  0  0  0  0  0  0  0  0  0  0  0  0  0  0  0  0  0  0  0  0  0  0  0  0  0  0  0  0  0  0  0  0  0  0  0  0  0  0  0  0  0  0  0  0  0  0  0
CONSTANT    1.000000E+01                           #delr                          
CONSTANT    1.000000E+01                           #delc                          
CONSTANT    1.000000E+02                           #model_top                     
CONSTANT    1.000000E+02                           #botm layer 1                  
CONSTANT    9.795918E+01                           #botm layer 2                  
CONSTANT    9.591837E+01                           #botm layer 3                  
CONSTANT    9.387755E+01                           #botm layer 4                  
CONSTANT    9.183673E+01                           #botm layer 5                  
CONSTANT    8.979592E+01                           #botm layer 6                  
CONSTANT    8.775510E+01                           #botm layer 7                  
CONSTANT    8.571429E+01                           #botm layer 8                  
CONSTANT    8.367347E+01                           #botm layer 9                  
CONSTANT    8.163265E+01                           #botm layer 10                 
CONSTANT    7.959184E+01                           #botm layer 11                 
CONSTANT    7.755102E+01                           #botm layer 12                 
CONSTANT    7.551020E+01                           #botm layer 13                 
CONSTANT    7.346939E+01                           #botm layer 14                 
CONSTANT    7.142857E+01                           #botm layer 15                 
CONSTANT    6.938776E+01                           #botm layer 16                 
CONSTANT    6.734694E+01                           #botm layer 17                 
CONSTANT    6.530612E+01                           #botm layer 18                 
CONSTANT    6.326530E+01                           #botm layer 19                 
CONSTANT    6.122449E+01                           #botm layer 20                 
CONSTANT    5.918367E+01                           #botm layer 21                 
CONSTANT    5.714286E+01                           #botm layer 22                 
CONSTANT    5.510204E+01                           #botm layer 23                 
CONSTANT    5.306123E+01                           #botm layer 24                 
CONSTANT    5.102041E+01                           #botm layer 25                 
CONSTANT    4.897959E+01                           #botm layer 26                 
CONSTANT    4.693877E+01                           #botm layer 27                 
CONSTANT    4.489796E+01                           #botm layer 28                 
CONSTANT    4.285714E+01                           #botm layer 29                 
CONSTANT    4.081633E+01                           #botm layer 30                 
CONSTANT    3.877551E+01                           #botm layer 31                 
CONSTANT    3.673470E+01                           #botm layer 32                 
CONSTANT    3.469388E+01                           #botm layer 33                 
CONSTANT    3.265306E+01                           #botm layer 34                 
CONSTANT    3.061225E+01                           #botm layer 35                 
CONSTANT    2.857143E+01                           #botm layer 36                 
CONSTANT    2.653061E+01                           #botm layer 37                 
CONSTANT    2.448980E+01                           #botm layer 38                 
CONSTANT    2.244898E+01                           #botm layer 39                 
CONSTANT    2.040816E+01                           #botm layer 40                 
CONSTANT    1.836735E+01                           #botm layer 41                 
CONSTANT    1.632653E+01                           #botm layer 42                 
CONSTANT    1.428571E+01                           #botm layer 43                 
CONSTANT    1.224490E+01                           #botm layer 44                 
CONSTANT    1.020408E+01                           #botm layer 45                 
CONSTANT    8.163265E+00                           #botm layer 46                 
CONSTANT    6.122449E+00                           #botm layer 47                 
CONSTANT    4.081633E+00                           #botm layer 48                 
CONSTANT    2.040816E+00                           #botm layer 49                 
CONSTANT    0.000000E+00                           #botm layer 50                 
      1.000000             1  1.000000  SS
