# File generated by Flopy version 3.8.2 on 12/15/2024 at 11:28:02.
BEGIN options
END options

BEGIN timing
  TDIS6  pleasant.tdis
END timing

BEGIN models
  gwf6  pleasant.nam  pleasant
END models

BEGIN exchanges
END exchanges

BEGIN solutiongroup  1
  ims6  pleasant.ims  pleasant
END solutiongroup  1

