# File generated by Flopy version 3.8.2 on 12/15/2024 at 11:28:02.
BEGIN options
END options

BEGIN dimensions
  MAXBOUND  572
END dimensions

BEGIN period  1
    OPEN/CLOSE  'data/chd_000.dat'
END period  1

