# Name file for MODFLOW-2005, generated by Flopy version 3.8.2.
#xll:0.0; yll:0.0; rotation:0.0; units:meters; lenuni:2; start_datetime:1-1-1970
LIST               2  gwexample.list
DIS               11  gwexample.dis
BAS6              13  gwexample.bas
LPF               15  gwexample.lpf
RCH               19  gwexample.rch
WEL               20  gwexample.wel
PCG               27  gwexample.pcg
OC                14  gwexample.oc
DATA(BINARY)      51  gwexample.hds REPLACE
