# RIV package for MODFLOW-2005 generated by Flopy 3.8.2
         3         0
         3         0 # stress period 1
         3         4         5            10.7          5000.0            -5.7
         3         4         6            10.7          5000.0            -5.7
         3         4         7            10.7          5000.0            -5.7
        -1         0 # stress period 2
        -1         0 # stress period 3
