# Name file for MODFLOW-2005, generated by Flopy version 3.8.2.
#xll:0.0; yll:0.0; rotation:0.0; units:meters; lenuni:2; start_datetime:1-1-1970
LIST               2  e.list
DIS               11  e.dis
RIV               18  e.riv
