# Name file for MODFLOW-2005, generated by Flopy version 3.8.2.
#None; start_datetime:None
LIST               2  m.list
RIV               18  m.riv
