# File generated by Flopy version 3.8.2 on 12/15/2024 at 11:28:02.
BEGIN options
  TIME_UNITS  days
END options

BEGIN dimensions
  NPER  1
END dimensions

BEGIN perioddata
       1.00000000  1       1.00000000
END perioddata

