# File generated by Flopy version 3.8.2 on 12/15/2024 at 11:28:02.
BEGIN options
  COMPLEXITY  moderate
END options

BEGIN nonlinear
  OUTER_DVCLOSE       0.00100000
END nonlinear

