# WEL package for MODFLOW-2005 generated by Flopy 3.8.2
         2         0 
         2         0 # stress period 1
         1         1        51            -1.0
         1         1       151            -1.0
