# File generated by Flopy version 3.8.2 on 12/15/2024 at 11:28:02.
BEGIN options
  READASARRAYS
END options

BEGIN period  1
  irch
    OPEN/CLOSE  'data/irch.dat'  FACTOR  1
  recharge
    OPEN/CLOSE  'data/rch_000.dat'  FACTOR  1.0
END period  1

