# File generated by Flopy version 3.8.2 on 12/18/2024 at 16:41:49.
BEGIN options
END options

BEGIN timing
  TDIS6  pleasant.tdis
END timing

BEGIN models
  gwf6  pleasant.nam  pleasant
END models

BEGIN exchanges
END exchanges

