# File generated by Flopy version 3.8.2 on 12/19/2024 at 09:59:33.
BEGIN options
END options

BEGIN timing
  TDIS6  pleasant.tdis
END timing

BEGIN models
  gwf6  pleasant.nam  pleasant
END models

BEGIN exchanges
END exchanges

BEGIN solutiongroup  1
  ims6  pleasant.ims  pleasant
END solutiongroup  1

