# File generated by Flopy version 3.8.2 on 12/19/2024 at 09:59:33.
BEGIN options
  BOUNDNAMES
  SURFDEP       0.10000000
END options

BEGIN dimensions
  NLAKES  1
END dimensions

BEGIN packagedata
  1     290.85000000  345  lake1
END packagedata

