# File generated by Flopy version 3.8.2 on 12/19/2024 at 09:59:33.
BEGIN options
END options

BEGIN dimensions
  MAXBOUND  572
END dimensions

BEGIN period  1
    OPEN/CLOSE  '../data/chd_000.dat'
END period  1

