# File generated by Flopy version 3.8.2 on 12/18/2024 at 16:41:49.
BEGIN options
  SAVE_FLOWS
END options

BEGIN packages
  OC6  pleasant.oc  oc
  DIS6  pleasant.dis  dis
  NPF6  pleasant.npf  npf
  IC6  pleasant.ic  ic
END packages

