# File generated by Flopy version 3.8.2 on 12/19/2024 at 09:59:33.
BEGIN options
END options

BEGIN dimensions
  NLAY  3
  NROW  60
  NCOL  70
END dimensions

BEGIN griddata
  delr
    CONSTANT      40.00000000
  delc
    CONSTANT      40.00000000
  top
    OPEN/CLOSE  '../data/top.dat'  FACTOR  1.0
  botm  LAYERED
    OPEN/CLOSE  '../data/botm_000.dat'  FACTOR  1.0
    OPEN/CLOSE  '../data/botm_001.dat'  FACTOR  1.0
    OPEN/CLOSE  '../data/botm_002.dat'  FACTOR  1.0
  idomain
    CONSTANT  1
END griddata

