# File generated by Flopy version 3.8.2 on 12/19/2024 at 09:59:33.
BEGIN options
  COMPLEXITY  moderate
END options

BEGIN nonlinear
  OUTER_DVCLOSE       0.00100000
END nonlinear

