# File generated by Flopy version 3.8.2 on 12/19/2024 at 09:59:33.
BEGIN options
  BUDGET  FILEOUT  pleasant.cbc
  HEAD  FILEOUT  pleasant.hds
END options

BEGIN period  1
  SAVE  head  all
  SAVE  budget  all
END period  1

