# File generated by Flopy version 3.8.2 on 12/19/2024 at 09:59:33.
BEGIN options
  BOUNDNAMES
  SURFDEP       0.10000000
END options

BEGIN dimensions
  NLAKES  1
END dimensions

BEGIN packagedata
  1     290.85000000  345  lake1
END packagedata

BEGIN connectiondata
    OPEN/CLOSE  '../data/lake_cn.dat'
END connectiondata

BEGIN period  1
  1  evaporation  0.000715
  1  rainfall  0.00209
END period  1

