# File generated by Flopy version 3.8.2 on 12/18/2024 at 16:41:49.
BEGIN options
  BUDGET  FILEOUT  pleasant.cbc
  HEAD  FILEOUT  pleasant.hds
END options

BEGIN period  1
  SAVE  head  all
  SAVE  budget  all
END period  1

