# File generated by Flopy version 3.8.2 on 12/18/2024 at 16:41:49.
BEGIN options
END options

BEGIN griddata
  strt  LAYERED
    OPEN/CLOSE  '../data/top.dat'  FACTOR  1.0
    OPEN/CLOSE  '../data/top.dat'  FACTOR  1.0
    OPEN/CLOSE  '../data/top.dat'  FACTOR  1.0
END griddata

