# File generated by Flopy version 3.8.2 on 12/19/2024 at 09:59:33.
BEGIN options
  SAVE_FLOWS
END options

BEGIN packages
  OC6  pleasant.oc  oc
  DIS6  pleasant.dis  dis
  NPF6  pleasant.npf  npf
  IC6  pleasant.ic  ic
  CHD6  pleasant.chd  chd_0
  RCH6  pleasant.rcha  rcha_0
  LAK6  pleasant.lak  lak_0
  CHD6  pleasant_0.chd  chd_1
  RCH6  pleasant_0.rcha  rcha_1
  LAK6  pleasant_0.lak  lak_1
END packages

