# File generated by Flopy version 3.8.2 on 12/15/2024 at 11:28:02.
BEGIN options
  SAVE_FLOWS
END options

BEGIN packages
  OC6  pleasant.oc  oc
  DIS6  pleasant.dis  dis
  NPF6  pleasant.npf  npf
  IC6  pleasant.ic  ic
  CHD6  pleasant.chd  chd_0
  RCH6  pleasant.rcha  rcha_0
  LAK6  pleasant.lak  lak_0
END packages

